*SPEF "IEEE 1481-1998"
*DESIGN "spi_combine"
*DATE "Mon Jan  1 11:10:30 2024"
*VENDOR "Cadence Design Systems, Inc."
*PROGRAM "Innovus"
*VERSION "15.20-p005_1"
*DESIGN_FLOW "COUPLING C" "PIN_CAP NONE" "NAME_SCOPE LOCAL"
*DIVIDER /
*DELIMITER :
*BUS_DELIMITER []
*T_UNIT 1 NS
*C_UNIT 1 PF
*R_UNIT 1 OHM
*L_UNIT 1 HENRY

// MMMC spef file for corner 'TYP1'

*NAME_MAP

*1 spi_MasterMode_u/FE_PHN488_rstn_sync
*2 FE_PHN487_rstn_sync
*3 spi_MasterMode_u/FE_PHN486_rstn_sync
*4 spi_MasterMode_u/FE_PHN485_bit_cnt_2_
*5 spi_MasterMode_u/FE_PHN484_rstn_sync
*6 spi_MasterMode_u/FE_PHN483_bit_cnt_2_
*7 spi_MasterMode_u/write_fifo/FE_PHN482_re_ptr_2_
*8 spi_MasterMode_u/FE_PHN481_rstn_sync
*9 spi_MasterMode_u/FE_PHN480_n193
*10 spi_MasterMode_u/FE_PHN479_rstn_sync
*11 spi_MasterMode_u/FE_PHN478_int_o
*12 spi_MasterMode_u/write_fifo/FE_PHN477_mem_0__4_
*13 spi_MasterMode_u/write_fifo/FE_PHN476_mem_3__5_
*14 spi_MasterMode_u/FE_PHN475_bit_cnt_1_
*15 spi_MasterMode_u/read_fifo/FE_PHN474_n61
*16 spi_MasterMode_u/read_fifo/FE_PHN473_n45
*17 spi_MasterMode_u/FE_PHN472_n84
*18 spi_MasterMode_u/FE_PHN471_N187
*19 spi_MasterMode_u/FE_PHN470_clk_cnt_7_
*20 FE_PHN469_rstn_sync
*21 spi_MasterMode_u/FE_PHN468_n193
*22 spi_MasterMode_u/FE_PHN467_n84
*23 spi_MasterMode_u/read_fifo/FE_PHN466_n58
*24 spi_MasterMode_u/FE_PHN465_bit_cnt_0_
*25 spi_SlaveMode_u/FE_PHN464_rx_valid_d0
*26 spi_MasterMode_u/FE_PHN463_rfifo_wen
*27 spi_MasterMode_u/write_fifo/FE_PHN462_mem_1__3_
*28 spi_MasterMode_u/write_fifo/FE_PHN461_wr_ptr_2_
*29 spi_MasterMode_u/FE_PHN460_n17
*30 spi_MasterMode_u/read_fifo/FE_PHN459_re_ptr_2_
*31 FE_PHN458_spi_con_6_
*32 spi_MasterMode_u/read_fifo/FE_PHN457_mem_0__6_
*33 spi_MasterMode_u/read_fifo/FE_PHN456_n37
*34 spi_MasterMode_u/read_fifo/FE_PHN455_mem_3__3_
*35 spi_MasterMode_u/read_fifo/FE_PHN454_mem_1__3_
*36 spi_SlaveMode_u/FE_PHN453_rx_data_2_
*37 spi_MasterMode_u/write_fifo/FE_PHN452_mem_1__5_
*38 spi_MasterMode_u/write_fifo/FE_PHN451_mem_2__7_
*39 spi_MasterMode_u/read_fifo/FE_PHN450_mem_3__4_
*40 spi_MasterMode_u/FE_PHN449_n54
*41 spi_MasterMode_u/FE_PHN448_clk_cnt_0_
*42 spi_SlaveMode_u/FE_PHN447_sfr_tx_0_
*43 spi_MasterMode_u/FE_PHN446_bit_cnt_1_
*44 spi_MasterMode_u/read_fifo/FE_PHN445_mem_2__7_
*45 spi_MasterMode_u/read_fifo/FE_PHN444_mem_0__7_
*46 spi_MasterMode_u/read_fifo/FE_PHN443_mem_1__1_
*47 spi_SlaveMode_u/FE_PHN442_sfr_tx_4_
*48 spi_MasterMode_u/FE_PHN441_n47
*49 spi_MasterMode_u/FE_PHN440_data_o_7_
*50 spi_MasterMode_u/read_fifo/FE_PHN439_mem_3__7_
*51 spi_MasterMode_u/read_fifo/FE_PHN438_mem_0__4_
*52 spi_MasterMode_u/write_fifo/FE_PHN437_mem_3__1_
*53 spi_MasterMode_u/read_fifo/FE_PHN436_n61
*54 spi_MasterMode_u/FE_PHN435_n65
*55 spi_MasterMode_u/read_fifo/FE_PHN434_n45
*56 spi_MasterMode_u/write_fifo/FE_PHN433_mem_1__7_
*57 spi_MasterMode_u/write_fifo/FE_PHN432_mem_2__4_
*58 spi_MasterMode_u/FE_PHN431_N187
*59 spi_MasterMode_u/read_fifo/FE_PHN430_n69
*60 spi_MasterMode_u/FE_PHN429_clk_cnt_7_
*61 spi_MasterMode_u/FE_PHN428_int_o
*62 spi_MasterMode_u/read_fifo/FE_PHN427_mem_2__1_
*63 spi_MasterMode_u/write_fifo/FE_PHN426_mem_0__7_
*64 spi_MasterMode_u/write_fifo/FE_PHN425_mem_0__2_
*65 spi_MasterMode_u/FE_PHN424_n80
*66 spi_MasterMode_u/FE_PHN423_spi_sta_6
*67 spi_MasterMode_u/FE_PHN422_ssn
*68 spi_MasterMode_u/read_fifo/FE_PHN421_mem_1__5_
*69 spi_MasterMode_u/write_fifo/FE_PHN420_mem_0__0_
*70 spi_MasterMode_u/write_fifo/FE_PHN419_mem_2__2_
*71 spi_MasterMode_u/write_fifo/FE_PHN418_mem_1__6_
*72 spi_MasterMode_u/FE_PHN417_clk_cnt_6_
*73 spi_MasterMode_u/read_fifo/FE_PHN416_mem_3__1_
*74 spi_MasterMode_u/write_fifo/FE_PHN415_mem_3__0_
*75 spi_MasterMode_u/FE_PHN414_clk_cnt_9_
*76 spi_MasterMode_u/FE_PHN413_n190
*77 spi_MasterMode_u/write_fifo/FE_PHN412_re_ptr_2_
*78 spi_MasterMode_u/write_fifo/FE_PHN411_mem_1__1_
*79 spi_MasterMode_u/write_fifo/FE_PHN410_mem_1__0_
*80 spi_MasterMode_u/read_fifo/FE_PHN409_n46
*81 spi_MasterMode_u/FE_PHN408_clk_cnt_2_
*82 spi_MasterMode_u/FE_PHN407_data_o_3_
*83 spi_MasterMode_u/write_fifo/FE_PHN406_mem_1__2_
*84 spi_MasterMode_u/read_fifo/FE_PHN405_mem_0__3_
*85 spi_MasterMode_u/write_fifo/FE_PHN404_n93
*86 spi_MasterMode_u/read_fifo/FE_PHN403_mem_1__6_
*87 spi_MasterMode_u/FE_PHN402_n142
*88 spi_MasterMode_u/FE_PHN401_n42
*89 spi_MasterMode_u/FE_PHN400_n46
*90 spi_MasterMode_u/FE_PHN399_n90
*91 spi_MasterMode_u/read_fifo/FE_PHN398_n61
*92 spi_MasterMode_u/FE_PHN397_n190
*93 spi_MasterMode_u/read_fifo/FE_PHN396_n45
*94 spi_MasterMode_u/read_fifo/FE_PHN395_n54
*95 spi_MasterMode_u/read_fifo/FE_PHN394_n57
*96 spi_MasterMode_u/FE_PHN393_n84
*97 spi_MasterMode_u/FE_PHN392_n53
*98 spi_MasterMode_u/FE_PHN391_n146
*99 spi_MasterMode_u/read_fifo/FE_PHN390_n46
*100 spi_MasterMode_u/read_fifo/FE_PHN389_n56
*101 spi_MasterMode_u/read_fifo/FE_PHN388_n68
*102 spi_MasterMode_u/read_fifo/FE_PHN387_n62
*103 spi_MasterMode_u/FE_PHN386_n81
*104 spi_MasterMode_u/read_fifo/FE_PHN385_n65
*105 spi_MasterMode_u/read_fifo/FE_PHN384_n38
*106 spi_MasterMode_u/FE_PHN383_n159
*107 spi_MasterMode_u/FE_PHN382_n186
*108 spi_MasterMode_u/read_fifo/FE_PHN381_n48
*109 spi_MasterMode_u/read_fifo/FE_PHN380_n40
*110 spi_MasterMode_u/read_fifo/FE_PHN379_n49
*111 spi_MasterMode_u/read_fifo/FE_PHN378_n41
*112 spi_MasterMode_u/read_fifo/FE_PHN377_n64
*113 spi_MasterMode_u/read_fifo/FE_PHN376_n60
*114 spi_MasterMode_u/FE_PHN375_data_o_1_
*115 spi_MasterMode_u/FE_PHN374_bit_cnt_1_
*116 spi_MasterMode_u/FE_PHN373_clk_cnt_0_
*117 spi_MasterMode_u/write_fifo/FE_PHN372_re_ptr_2_
*118 spi_MasterMode_u/FE_PHN371_spi_ext_6_
*119 spi_MasterMode_u/FE_PHN370_rfifo_wen
*120 spi_MasterMode_u/read_fifo/FE_PHN369_mem_2__7_
*121 spi_SlaveMode_u/FE_PHN368_rx_data_0_
*122 spi_MasterMode_u/read_fifo/FE_PHN367_mem_3__7_
*123 spi_MasterMode_u/read_fifo/FE_PHN366_mem_0__7_
*124 spi_SlaveMode_u/FE_PHN365_sfr_tx_6_
*125 spi_MasterMode_u/read_fifo/FE_PHN364_mem_1__1_
*126 spi_MasterMode_u/FE_PHN363_wfifo_ren
*127 spi_MasterMode_u/FE_PHN362_clk_cnt_9_
*128 spi_MasterMode_u/FE_PHN361_data_o_3_
*129 spi_MasterMode_u/write_fifo/FE_PHN360_mem_1__4_
*130 spi_MasterMode_u/write_fifo/FE_PHN359_mem_0__1_
*131 spi_MasterMode_u/FE_PHN358_clk_cnt_12_
*132 spi_MasterMode_u/FE_PHN357_data_o_6_
*133 spi_MasterMode_u/read_fifo/FE_PHN356_mem_3__4_
*134 spi_MasterMode_u/FE_PHN355_data_buf_3_
*135 spi_SlaveMode_u/FE_PHN354_sfr_tx_4_
*136 spi_MasterMode_u/write_fifo/FE_PHN353_mem_2__3_
*137 spi_MasterMode_u/write_fifo/FE_PHN352_mem_3__1_
*138 spi_MasterMode_u/write_fifo/FE_PHN351_mem_0__4_
*139 spi_MasterMode_u/write_fifo/FE_PHN350_mem_0__5_
*140 spi_SlaveMode_u/FE_PHN349_rx_data_2_
*141 spi_MasterMode_u/write_fifo/FE_PHN348_mem_2__7_
*142 spi_MasterMode_u/FE_PHN347_ssn
*143 spi_MasterMode_u/write_fifo/FE_PHN346_mem_1__5_
*144 spi_MasterMode_u/write_fifo/FE_PHN345_mem_1__6_
*145 spi_SlaveMode_u/FE_PHN344_sfr_tx_0_
*146 FE_PHN343_spi_con_4_
*147 spi_MasterMode_u/write_fifo/FE_PHN342_mem_0__7_
*148 spi_MasterMode_u/write_fifo/FE_PHN341_mem_2__2_
*149 spi_MasterMode_u/FE_PHN340_n133
*150 spi_MasterMode_u/FE_PHN339_clk_cnt_6_
*151 spi_MasterMode_u/write_fifo/FE_PHN338_mem_2__4_
*152 spi_MasterMode_u/FE_PHN337_trans_cnt_0_
*153 spi_MasterMode_u/read_fifo/FE_PHN336_mem_0__4_
*154 spi_MasterMode_u/write_fifo/FE_PHN335_mem_1__7_
*155 spi_MasterMode_u/read_fifo/FE_PHN334_mem_3__2_
*156 spi_MasterMode_u/write_fifo/FE_PHN333_mem_2__0_
*157 spi_MasterMode_u/FE_PHN332_n89
*158 spi_MasterMode_u/write_fifo/FE_PHN331_mem_1__2_
*159 spi_SlaveMode_u/FE_PHN330_sfr_tx_5_
*160 spi_MasterMode_u/write_fifo/FE_PHN329_mem_1__0_
*161 spi_MasterMode_u/write_fifo/FE_PHN328_mem_1__1_
*162 spi_MasterMode_u/write_fifo/FE_PHN327_mem_0__6_
*163 spi_MasterMode_u/read_fifo/FE_PHN326_mem_1__0_
*164 spi_MasterMode_u/FE_PHN325_n65
*165 spi_MasterMode_u/read_fifo/FE_PHN324_mem_3__0_
*166 spi_MasterMode_u/write_fifo/FE_PHN323_mem_0__0_
*167 spi_MasterMode_u/write_fifo/FE_PHN322_mem_3__0_
*168 spi_MasterMode_u/write_fifo/FE_PHN321_mem_0__2_
*169 spi_MasterMode_u/read_fifo/FE_PHN320_mem_2__1_
*170 spi_MasterMode_u/read_fifo/FE_PHN319_mem_0__0_
*171 spi_MasterMode_u/read_fifo/FE_PHN318_mem_2__0_
*172 spi_MasterMode_u/FE_PHN317_spi_ext_7_
*173 spi_MasterMode_u/FE_PHN316_data_buf_0_
*174 spi_MasterMode_u/write_fifo/FE_PHN315_n93
*175 spi_MasterMode_u/write_fifo/FE_PHN314_mem_0__3_
*176 spi_MasterMode_u/FE_PHN313_clk_cnt_3_
*177 spi_MasterMode_u/read_fifo/FE_PHN312_mem_3__1_
*178 spi_MasterMode_u/write_fifo/FE_PHN311_mem_3__3_
*179 spi_MasterMode_u/FE_PHN310_n80
*180 spi_MasterMode_u/write_fifo/FE_PHN309_n122
*181 spi_MasterMode_u/read_fifo/FE_PHN308_re_ptr_2_
*182 spi_MasterMode_u/read_fifo/FE_PHN307_mem_2__4_
*183 spi_SlaveMode_u/FE_PHN306_sfr_tx_1_
*184 spi_MasterMode_u/read_fifo/FE_PHN305_mem_0__5_
*185 spi_SlaveMode_u/FE_PHN304_rx_data_1_
*186 spi_MasterMode_u/FE_PHN303_spi_ext_2_
*187 spi_MasterMode_u/write_fifo/FE_PHN302_wr_ptr_2_
*188 spi_MasterMode_u/FE_PHN301_data_o_4_
*189 spi_MasterMode_u/write_fifo/FE_PHN300_mem_3__7_
*190 spi_MasterMode_u/write_fifo/FE_PHN299_wr_ptr_0_
*191 spi_MasterMode_u/FE_PHN298_mosi_o
*192 FE_PHN297_spi_con_1_
*193 spi_MasterMode_u/FE_PHN296_data_buf_2_
*194 spi_SlaveMode_u/FE_PHN295_sfr_tx_3_
*195 spi_MasterMode_u/read_fifo/FE_PHN294_mem_1__2_
*196 spi_SlaveMode_u/FE_PHN293_sfr_tx_2_
*197 spi_MasterMode_u/write_fifo/FE_PHN292_mem_2__5_
*198 FE_PHN291_rstn_temp
*199 spi_MasterMode_u/read_fifo/FE_PHN290_wr_ptr_2_
*200 spi_MasterMode_u/FE_PHN289_spi_sta_7
*201 spi_MasterMode_u/FE_PHN288_n128
*202 spi_MasterMode_u/FE_PHN287_n154
*203 spi_MasterMode_u/FE_PHN286_n188
*204 spi_MasterMode_u/FE_PHN285_n155
*205 spi_MasterMode_u/FE_PHN284_n162
*206 spi_MasterMode_u/FE_PHN283_n143
*207 spi_MasterMode_u/FE_PHN282_n148
*208 spi_MasterMode_u/read_fifo/FE_PHN281_n52
*209 spi_MasterMode_u/read_fifo/FE_PHN280_n51
*210 spi_MasterMode_u/FE_PHN279_n48
*211 spi_MasterMode_u/read_fifo/FE_PHN278_n63
*212 spi_MasterMode_u/read_fifo/FE_PHN277_n39
*213 spi_MasterMode_u/read_fifo/FE_PHN276_n56
*214 spi_MasterMode_u/read_fifo/FE_PHN275_n43
*215 spi_MasterMode_u/read_fifo/FE_PHN274_n36
*216 spi_MasterMode_u/FE_PHN273_n142
*217 spi_MasterMode_u/read_fifo/FE_PHN272_n44
*218 spi_MasterMode_u/read_fifo/FE_PHN271_n55
*219 spi_MasterMode_u/read_fifo/FE_PHN270_n60
*220 spi_SlaveMode_u/FE_PHN269_n30
*221 spi_MasterMode_u/read_fifo/FE_PHN268_n47
*222 spi_MasterMode_u/write_fifo/FE_PHN267_n134
*223 spi_MasterMode_u/read_fifo/FE_PHN266_n40
*224 spi_MasterMode_u/FE_PHN265_n145
*225 spi_MasterMode_u/read_fifo/FE_PHN264_n37
*226 spi_MasterMode_u/read_fifo/FE_PHN263_n35
*227 spi_MasterMode_u/read_fifo/FE_PHN262_n58
*228 spi_MasterMode_u/FE_PHN261_n158
*229 spi_MasterMode_u/read_fifo/FE_PHN260_n59
*230 spi_MasterMode_u/read_fifo/FE_PHN259_n68
*231 spi_MasterMode_u/FE_PHN258_n161
*232 spi_MasterMode_u/FE_PHN257_n164
*233 spi_MasterMode_u/FE_PHN256_n189
*234 spi_MasterMode_u/read_fifo/FE_PHN255_n69
*235 spi_MasterMode_u/FE_PHN254_n17
*236 spi_MasterMode_u/FE_PHN253_n153
*237 spi_MasterMode_u/FE_PHN252_n19
*238 spi_MasterMode_u/read_fifo/FE_PHN251_n53
*239 spi_MasterMode_u/FE_PHN250_n182
*240 spi_MasterMode_u/read_fifo/FE_PHN249_n48
*241 spi_MasterMode_u/read_fifo/FE_PHN248_n64
*242 spi_MasterMode_u/FE_PHN247_n149
*243 spi_MasterMode_u/FE_PHN246_n191
*244 spi_MasterMode_u/FE_PHN245_clk_cnt_5_
*245 spi_MasterMode_u/FE_PHN244_spi_ext_5_
*246 spi_MasterMode_u/FE_PHN243_spi_ext_4_
*247 FE_PHN242_spi_con_7_
*248 spi_MasterMode_u/FE_PHN241_rfifo_wen
*249 spi_SlaveMode_u/FE_PHN240_rx_valid_d0
*250 spi_MasterMode_u/FE_PHN239_spi_ext_3_
*251 spi_MasterMode_u/write_fifo/FE_PHN238_mem_3__1_
*252 spi_MasterMode_u/write_fifo/FE_PHN237_mem_2__2_
*253 spi_SlaveMode_u/FE_PHN236_rx_data_2_
*254 FE_PHN235_spi_con_2_
*255 spi_MasterMode_u/FE_PHN234_ssn
*256 spi_MasterMode_u/write_fifo/FE_PHN233_mem_0__7_
*257 spi_MasterMode_u/write_fifo/FE_PHN232_mem_1__7_
*258 spi_MasterMode_u/write_fifo/FE_PHN231_mem_1__5_
*259 spi_MasterMode_u/write_fifo/FE_PHN230_mem_1__6_
*260 spi_MasterMode_u/write_fifo/FE_PHN229_mem_1__1_
*261 FE_PHN228_spi_con_1_
*262 spi_MasterMode_u/read_fifo/FE_PHN227_mem_1__3_
*263 spi_MasterMode_u/read_fifo/FE_PHN226_mem_2__3_
*264 spi_MasterMode_u/write_fifo/FE_PHN225_mem_0__5_
*265 spi_MasterMode_u/read_fifo/FE_PHN224_mosi_o
*266 spi_MasterMode_u/write_fifo/FE_PHN223_mem_0__0_
*267 spi_MasterMode_u/write_fifo/FE_PHN222_mem_3__7_
*268 spi_MasterMode_u/write_fifo/FE_PHN221_mem_0__2_
*269 spi_MasterMode_u/read_fifo/FE_PHN220_mem_1__6_
*270 spi_MasterMode_u/FE_PHN219_spi_ext_2_
*271 spi_MasterMode_u/write_fifo/FE_PHN218_mem_1__2_
*272 spi_MasterMode_u/write_fifo/FE_PHN217_mem_2__7_
*273 spi_MasterMode_u/write_fifo/FE_PHN216_mem_1__0_
*274 spi_MasterMode_u/write_fifo/FE_PHN215_mem_3__0_
*275 spi_SlaveMode_u/FE_PHN214_sfr_tx_0_
*276 spi_SlaveMode_u/FE_PHN213_sfr_tx_4_
*277 spi_SlaveMode_u/FE_PHN212_rx_data_4_
*278 spi_MasterMode_u/FE_PHN211_n115
*279 spi_MasterMode_u/write_fifo/FE_PHN210_mem_0__1_
*280 spi_MasterMode_u/FE_PHN209_data_o_0_
*281 spi_MasterMode_u/write_fifo/FE_PHN208_mem_3__2_
*282 spi_MasterMode_u/write_fifo/FE_PHN207_mem_3__6_
*283 spi_MasterMode_u/read_fifo/FE_PHN206_re_ptr_2_
*284 spi_MasterMode_u/write_fifo/FE_PHN205_mem_2__6_
*285 FE_PHN204_spi_con_0_
*286 spi_MasterMode_u/FE_PHN203_state_2_
*287 spi_MasterMode_u/read_fifo/FE_PHN202_mem_0__3_
*288 spi_MasterMode_u/FE_PHN201_bit_cnt_0_
*289 spi_MasterMode_u/write_fifo/FE_PHN200_mem_0__6_
*290 spi_MasterMode_u/write_fifo/FE_PHN199_mem_2__1_
*291 spi_MasterMode_u/write_fifo/FE_PHN198_wr_ptr_0_
*292 spi_MasterMode_u/write_fifo/FE_PHN197_mem_2__0_
*293 spi_MasterMode_u/FE_PHN196_spi_sta_7
*294 FE_PHN195_spi_con_4_
*295 spi_MasterMode_u/FE_PHN194_data_buf_5_
*296 spi_MasterMode_u/FE_PHN193_spi_ext_7_
*297 spi_MasterMode_u/read_fifo/FE_PHN192_mem_3__3_
*298 FE_PHN191_rstn_temp
*299 spi_MasterMode_u/read_fifo/FE_PHN190_mem_2__6_
*300 spi_MasterMode_u/write_fifo/FE_PHN189_mem_1__4_
*301 spi_MasterMode_u/write_fifo/FE_PHN188_mem_0__4_
*302 spi_SlaveMode_u/FE_PHN187_sfr_tx_5_
*303 spi_SlaveMode_u/FE_PHN186_rx_data_0_
*304 spi_SlaveMode_u/FE_PHN185_rx_data_7_
*305 spi_SlaveMode_u/FE_PHN184_sfr_tx_3_
*306 spi_MasterMode_u/FE_PHN183_clk_cnt_4_
*307 spi_MasterMode_u/read_fifo/FE_PHN182_mem_3__6_
*308 spi_MasterMode_u/read_fifo/FE_PHN181_mem_0__6_
*309 spi_MasterMode_u/write_fifo/FE_PHN180_mem_1__3_
*310 spi_MasterMode_u/FE_PHN179_spi_sta_6
*311 spi_MasterMode_u/FE_PHN178_wfifo_ren
*312 spi_MasterMode_u/write_fifo/FE_PHN177_mem_3__5_
*313 spi_MasterMode_u/write_fifo/FE_PHN176_mem_2__3_
*314 FE_PHN175_spi_con_6_
*315 spi_SlaveMode_u/FE_PHN174_sfr_tx_2_
*316 spi_MasterMode_u/write_fifo/FE_PHN173_mem_2__5_
*317 spi_SlaveMode_u/FE_PHN172_sfr_tx_1_
*318 spi_SlaveMode_u/FE_PHN171_rx_data_1_
*319 spi_MasterMode_u/read_fifo/FE_PHN170_mem_3__7_
*320 spi_MasterMode_u/read_fifo/FE_PHN169_mem_0__7_
*321 spi_MasterMode_u/write_fifo/FE_PHN168_mem_0__3_
*322 spi_MasterMode_u/read_fifo/FE_PHN167_mem_2__7_
*323 spi_MasterMode_u/write_fifo/FE_PHN166_mem_3__4_
*324 spi_MasterMode_u/write_fifo/FE_PHN165_mem_3__3_
*325 spi_SlaveMode_u/FE_PHN164_sfr_tx_6_
*326 spi_MasterMode_u/write_fifo/FE_PHN163_mem_2__4_
*327 spi_MasterMode_u/FE_PHN162_data_o_1_
*328 spi_MasterMode_u/FE_PHN161_data_buf_6_
*329 spi_MasterMode_u/write_fifo/FE_PHN160_wr_ptr_2_
*330 spi_MasterMode_u/FE_PHN159_spi_ext_6_
*331 spi_SlaveMode_u/FE_PHN158_sfr_tx_7_
*332 spi_MasterMode_u/FE_PHN157_spi_ext_1_
*333 spi_MasterMode_u/FE_PHN156_data_buf_2_
*334 spi_MasterMode_u/FE_PHN155_data_buf_4_
*335 spi_MasterMode_u/read_fifo/FE_PHN154_wr_ptr_2_
*336 spi_MasterMode_u/FE_PHN153_spi_ext_0_
*337 spi_MasterMode_u/FE_PHN152_ack_o
*338 spi_MasterMode_u/FE_PHN151_data_buf_0_
*339 spi_MasterMode_u/FE_PHN150_data_buf_3_
*340 spi_MasterMode_u/FE_PHN149_data_buf_1_
*341 spi_SlaveMode_u/FE_PHN148_rx_data_3_
*342 FE_PHN147_spi_con_3_
*343 spi_MasterMode_u/read_fifo/FE_PHN146_n70
*344 spi_MasterMode_u/FE_PHN145_n165
*345 spi_MasterMode_u/FE_PHN144_n146
*346 spi_MasterMode_u/FE_PHN143_n161
*347 spi_MasterMode_u/FE_PHN142_n152
*348 spi_MasterMode_u/FE_PHN141_n159
*349 spi_MasterMode_u/FE_PHN140_n147
*350 spi_MasterMode_u/FE_PHN139_n144
*351 spi_MasterMode_u/FE_PHN138_n185
*352 spi_MasterMode_u/FE_PHN137_n181
*353 spi_MasterMode_u/FE_PHN136_n150
*354 spi_MasterMode_u/FE_PHN135_n153
*355 spi_MasterMode_u/FE_PHN134_n180
*356 spi_MasterMode_u/FE_PHN133_n149
*357 spi_MasterMode_u/FE_PHN132_n183
*358 spi_MasterMode_u/FE_PHN131_n160
*359 spi_MasterMode_u/FE_PHN130_n151
*360 spi_MasterMode_u/FE_PHN129_n191
*361 spi_MasterMode_u/FE_PHN128_n187
*362 spi_MasterMode_u/FE_PHN127_n168
*363 spi_MasterMode_u/FE_PHN126_n196
*364 spi_MasterMode_u/FE_PHN125_n192
*365 spi_MasterMode_u/write_fifo/FE_PHN124_wr_ptr_0_
*366 spi_MasterMode_u/FE_PHN123_clk_cnt_0_
*367 spi_MasterMode_u/FE_PHN122_clk_cnt_9_
*368 spi_MasterMode_u/FE_PHN121_state_0_
*369 spi_SlaveMode_u/FE_PHN120_rx_valid_d0
*370 spi_MasterMode_u/FE_PHN119_spi_ext_4_
*371 FE_PHN118_spi_con_7_
*372 spi_MasterMode_u/FE_PHN117_spi_ext_5_
*373 FE_PHN116_spi_con_1_
*374 spi_MasterMode_u/read_fifo/FE_PHN115_mem_3__4_
*375 spi_MasterMode_u/write_fifo/FE_PHN114_mem_1__6_
*376 spi_MasterMode_u/read_fifo/FE_PHN113_mem_1__6_
*377 spi_MasterMode_u/write_fifo/FE_PHN112_mem_0__3_
*378 spi_MasterMode_u/read_fifo/FE_PHN111_mem_2__4_
*379 spi_MasterMode_u/read_fifo/FE_PHN110_mem_2__6_
*380 spi_MasterMode_u/read_fifo/FE_PHN109_mem_2__2_
*381 spi_MasterMode_u/read_fifo/FE_PHN108_mem_1__1_
*382 spi_MasterMode_u/read_fifo/FE_PHN107_mem_0__6_
*383 spi_MasterMode_u/write_fifo/FE_PHN106_mem_1__4_
*384 spi_MasterMode_u/read_fifo/FE_PHN105_mem_3__7_
*385 spi_MasterMode_u/write_fifo/FE_PHN104_mem_3__2_
*386 spi_MasterMode_u/read_fifo/FE_PHN103_mem_3__1_
*387 spi_MasterMode_u/read_fifo/FE_PHN102_mem_2__7_
*388 spi_MasterMode_u/read_fifo/FE_PHN101_mem_0__0_
*389 spi_MasterMode_u/write_fifo/FE_PHN100_mem_0__7_
*390 spi_MasterMode_u/FE_PHN99_spi_ext_3_
*391 spi_MasterMode_u/write_fifo/FE_PHN98_mem_1__7_
*392 spi_MasterMode_u/read_fifo/FE_PHN97_mem_3__0_
*393 spi_MasterMode_u/read_fifo/FE_PHN96_mem_3__3_
*394 spi_MasterMode_u/write_fifo/FE_PHN95_mem_2__7_
*395 spi_MasterMode_u/read_fifo/FE_PHN94_mem_2__0_
*396 spi_MasterMode_u/read_fifo/FE_PHN93_mem_1__3_
*397 spi_MasterMode_u/write_fifo/FE_PHN92_mem_0__0_
*398 spi_MasterMode_u/read_fifo/FE_PHN91_mem_3__5_
*399 spi_MasterMode_u/write_fifo/FE_PHN90_mem_3__0_
*400 spi_MasterMode_u/write_fifo/FE_PHN89_mem_0__4_
*401 spi_MasterMode_u/read_fifo/FE_PHN88_mem_0__3_
*402 spi_MasterMode_u/write_fifo/FE_PHN87_mem_1__2_
*403 spi_MasterMode_u/read_fifo/FE_PHN86_mem_1__5_
*404 spi_MasterMode_u/FE_PHN85_spi_sta_6
*405 spi_MasterMode_u/read_fifo/FE_PHN84_mem_2__3_
*406 spi_MasterMode_u/write_fifo/FE_PHN83_mem_2__6_
*407 spi_MasterMode_u/write_fifo/FE_PHN82_mem_1__3_
*408 spi_MasterMode_u/write_fifo/FE_PHN81_mem_2__4_
*409 spi_MasterMode_u/read_fifo/FE_PHN80_mem_0__4_
*410 spi_MasterMode_u/write_fifo/FE_PHN79_mem_0__5_
*411 spi_MasterMode_u/read_fifo/FE_PHN78_mem_3__2_
*412 spi_MasterMode_u/write_fifo/FE_PHN77_mem_3__1_
*413 spi_MasterMode_u/write_fifo/FE_PHN76_mem_2__2_
*414 spi_MasterMode_u/read_fifo/FE_PHN75_mem_1__0_
*415 spi_MasterMode_u/read_fifo/FE_PHN74_mem_0__1_
*416 spi_MasterMode_u/read_fifo/FE_PHN73_mem_0__7_
*417 spi_MasterMode_u/write_fifo/FE_PHN72_mem_2__0_
*418 spi_MasterMode_u/read_fifo/FE_PHN71_mem_0__2_
*419 spi_MasterMode_u/write_fifo/FE_PHN70_mem_0__1_
*420 spi_MasterMode_u/write_fifo/FE_PHN69_mem_0__6_
*421 FE_PHN68_spi_con_6_
*422 spi_MasterMode_u/write_fifo/FE_PHN67_mem_3__5_
*423 spi_MasterMode_u/write_fifo/FE_PHN66_mem_1__0_
*424 spi_MasterMode_u/FE_PHN65_data_buf_5_
*425 FE_PHN64_spi_con_2_
*426 spi_MasterMode_u/FE_PHN63_data_buf_3_
*427 spi_MasterMode_u/FE_PHN62_spi_ext_6_
*428 spi_MasterMode_u/FE_PHN61_trans_cnt_1_
*429 spi_SlaveMode_u/FE_PHN60_rx_data_4_
*430 spi_SlaveMode_u/FE_PHN59_sfr_tx_0_
*431 spi_SlaveMode_u/FE_PHN58_sfr_tx_4_
*432 spi_SlaveMode_u/FE_PHN57_rx_data_2_
*433 spi_MasterMode_u/write_fifo/FE_PHN56_mem_1__1_
*434 spi_MasterMode_u/write_fifo/FE_PHN55_mem_3__6_
*435 spi_MasterMode_u/write_fifo/FE_PHN54_mem_3__7_
*436 spi_MasterMode_u/write_fifo/FE_PHN53_wr_ptr_2_
*437 spi_MasterMode_u/read_fifo/FE_PHN52_wr_ptr_2_
*438 spi_MasterMode_u/write_fifo/FE_PHN51_mem_1__5_
*439 spi_MasterMode_u/read_fifo/FE_PHN50_mem_2__1_
*440 spi_MasterMode_u/write_fifo/FE_PHN49_mem_3__3_
*441 spi_MasterMode_u/FE_PHN48_spi_ext_2_
*442 spi_MasterMode_u/read_fifo/FE_PHN47_mem_1__4_
*443 spi_MasterMode_u/write_fifo/FE_PHN46_mem_2__3_
*444 spi_MasterMode_u/read_fifo/FE_PHN45_mem_3__6_
*445 spi_MasterMode_u/FE_PHN44_mosi_o
*446 spi_MasterMode_u/write_fifo/FE_PHN43_mem_0__2_
*447 spi_MasterMode_u/FE_PHN42_bit_cnt_0_
*448 spi_MasterMode_u/write_fifo/FE_PHN41_mem_3__4_
*449 spi_MasterMode_u/write_fifo/FE_PHN40_mem_2__5_
*450 FE_PHN39_spi_con_4_
*451 spi_MasterMode_u/FE_PHN38_trans_cnt_0_
*452 spi_MasterMode_u/FE_PHN37_spi_ext_7_
*453 spi_MasterMode_u/FE_PHN36_data_buf_6_
*454 spi_MasterMode_u/write_fifo/FE_PHN35_mem_2__1_
*455 spi_MasterMode_u/FE_PHN34_data_buf_2_
*456 spi_MasterMode_u/FE_PHN33_data_buf_4_
*457 spi_MasterMode_u/FE_PHN32_data_buf_0_
*458 spi_MasterMode_u/FE_PHN31_data_buf_1_
*459 spi_MasterMode_u/FE_PHN30_wfifo_ren
*460 spi_SlaveMode_u/FE_PHN29_rx_data_5_
*461 spi_SlaveMode_u/FE_PHN28_rx_data_6_
*462 spi_SlaveMode_u/FE_PHN27_sfr_tx_7_
*463 spi_SlaveMode_u/FE_PHN26_rx_data_3_
*464 spi_SlaveMode_u/FE_PHN25_rx_data_7_
*465 spi_SlaveMode_u/FE_PHN24_rx_data_0_
*466 spi_MasterMode_u/read_fifo/FE_PHN23_mem_1__7_
*467 spi_SlaveMode_u/FE_PHN22_sfr_tx_1_
*468 spi_SlaveMode_u/FE_PHN21_sfr_tx_6_
*469 spi_SlaveMode_u/FE_PHN20_rx_data_1_
*470 FE_PHN19_rstn_temp
*471 spi_SlaveMode_u/FE_PHN18_sfr_tx_5_
*472 spi_SlaveMode_u/FE_PHN17_sfr_tx_2_
*473 spi_SlaveMode_u/FE_PHN16_sfr_tx_3_
*474 spi_MasterMode_u/read_fifo/FE_PHN15_mem_2__5_
*475 spi_MasterMode_u/read_fifo/FE_PHN14_mem_1__2_
*476 spi_MasterMode_u/read_fifo/FE_PHN13_mem_0__5_
*477 spi_MasterMode_u/FE_PHN12_spi_ext_0_
*478 spi_MasterMode_u/FE_PHN11_spi_ext_1_
*479 FE_PHN10_spi_con_0_
*480 FE_PHN9_spi_con_3_
*481 clk_i
*482 rstn_i
*483 mosi
*484 miso
*485 sck
*486 ssn_i
*487 ssn_o[7]
*488 ssn_o[6]
*489 ssn_o[5]
*490 ssn_o[4]
*491 ssn_o[3]
*492 ssn_o[2]
*493 ssn_o[1]
*494 ssn_o[0]
*495 stb_i
*496 addr_i[1]
*497 addr_i[0]
*498 we_i
*499 data_i[7]
*500 data_i[6]
*501 data_i[5]
*502 data_i[4]
*503 data_i[3]
*504 data_i[2]
*505 data_i[1]
*506 data_i[0]
*507 data_o[7]
*508 data_o[6]
*509 data_o[5]
*510 data_o[4]
*511 data_o[3]
*512 data_o[2]
*513 data_o[1]
*514 data_o[0]
*515 ack_o
*516 int_o
*517 tx_valid
*518 tx_data[7]
*519 tx_data[6]
*520 tx_data[5]
*521 tx_data[4]
*522 tx_data[3]
*523 tx_data[2]
*524 tx_data[1]
*525 tx_data[0]
*526 rx_valid
*527 rx_data[7]
*528 rx_data[6]
*529 rx_data[5]
*530 rx_data[4]
*531 rx_data[3]
*532 rx_data[2]
*533 rx_data[1]
*534 rx_data[0]
*535 FE_PHN8_rstn_temp
*536 FE_PHN4_rstn_temp
*537 FE_OFN3_rstn_sync
*538 FE_OFN2_rstn_sync
*539 FE_DBTN1_spi_con_5_
*540 FE_DBTN0_spi_con_7_
*541 \*Logic1\*
*542 rstn_sync
*543 rstn_temp
*544 master_mode_en
*545 slave_mode_en
*546 sck_o
*547 mosi_o
*548 n2
*549 n3
*550 n4
*551 n5
*552 n6
*553 n7
*554 n9
*555 n10
*556 n11
*557 spi_con[7]
*558 spi_con[6]
*559 spi_con[5]
*560 spi_con[4]
*561 spi_con[3]
*562 spi_con[2]
*563 spi_con[1]
*564 spi_con[0]
*565 miso_i
*566 sck_i
*567 mosi_i
*568 miso_o
*569 spi_MasterMode_u/rfifo_wen
*570 spi_MasterMode_u/spi_sta_7
*571 spi_MasterMode_u/spi_sta_6
*572 spi_MasterMode_u/wfifo_wen
*573 spi_MasterMode_u/rfifo_ren
*574 spi_MasterMode_u/N86
*575 spi_MasterMode_u/N87
*576 spi_MasterMode_u/N88
*577 spi_MasterMode_u/N89
*578 spi_MasterMode_u/N90
*579 spi_MasterMode_u/N91
*580 spi_MasterMode_u/N92
*581 spi_MasterMode_u/N93
*582 spi_MasterMode_u/N94
*583 spi_MasterMode_u/N95
*584 spi_MasterMode_u/N96
*585 spi_MasterMode_u/N97
*586 spi_MasterMode_u/N98
*587 spi_MasterMode_u/trans_en
*588 spi_MasterMode_u/N187
*589 spi_MasterMode_u/wfifo_ren
*590 spi_MasterMode_u/ssn
*591 spi_MasterMode_u/N197
*592 spi_MasterMode_u/N207
*593 spi_MasterMode_u/N226
*594 spi_MasterMode_u/N229
*595 spi_MasterMode_u/N237
*596 spi_MasterMode_u/n1
*597 spi_MasterMode_u/n3
*598 spi_MasterMode_u/n4
*599 spi_MasterMode_u/n5
*600 spi_MasterMode_u/n6
*601 spi_MasterMode_u/n7
*602 spi_MasterMode_u/n9
*603 spi_MasterMode_u/n10
*604 spi_MasterMode_u/n11
*605 spi_MasterMode_u/n14
*606 spi_MasterMode_u/n15
*607 spi_MasterMode_u/n16
*608 spi_MasterMode_u/n17
*609 spi_MasterMode_u/n18
*610 spi_MasterMode_u/n19
*611 spi_MasterMode_u/n20
*612 spi_MasterMode_u/n22
*613 spi_MasterMode_u/n23
*614 spi_MasterMode_u/n24
*615 spi_MasterMode_u/n25
*616 spi_MasterMode_u/n27
*617 spi_MasterMode_u/n28
*618 spi_MasterMode_u/n30
*619 spi_MasterMode_u/n31
*620 spi_MasterMode_u/n33
*621 spi_MasterMode_u/n35
*622 spi_MasterMode_u/n36
*623 spi_MasterMode_u/n37
*624 spi_MasterMode_u/n39
*625 spi_MasterMode_u/n40
*626 spi_MasterMode_u/n41
*627 spi_MasterMode_u/n42
*628 spi_MasterMode_u/n43
*629 spi_MasterMode_u/n44
*630 spi_MasterMode_u/n45
*631 spi_MasterMode_u/n46
*632 spi_MasterMode_u/n48
*633 spi_MasterMode_u/n49
*634 spi_MasterMode_u/n50
*635 spi_MasterMode_u/n51
*636 spi_MasterMode_u/n52
*637 spi_MasterMode_u/n53
*638 spi_MasterMode_u/n56
*639 spi_MasterMode_u/n57
*640 spi_MasterMode_u/n58
*641 spi_MasterMode_u/n60
*642 spi_MasterMode_u/n61
*643 spi_MasterMode_u/n62
*644 spi_MasterMode_u/n63
*645 spi_MasterMode_u/n64
*646 spi_MasterMode_u/n66
*647 spi_MasterMode_u/n67
*648 spi_MasterMode_u/n68
*649 spi_MasterMode_u/n69
*650 spi_MasterMode_u/n70
*651 spi_MasterMode_u/n71
*652 spi_MasterMode_u/n72
*653 spi_MasterMode_u/n73
*654 spi_MasterMode_u/n74
*655 spi_MasterMode_u/n75
*656 spi_MasterMode_u/n76
*657 spi_MasterMode_u/n77
*658 spi_MasterMode_u/n78
*659 spi_MasterMode_u/n79
*660 spi_MasterMode_u/n81
*661 spi_MasterMode_u/n82
*662 spi_MasterMode_u/n83
*663 spi_MasterMode_u/n84
*664 spi_MasterMode_u/n85
*665 spi_MasterMode_u/n86
*666 spi_MasterMode_u/n87
*667 spi_MasterMode_u/n88
*668 spi_MasterMode_u/n90
*669 spi_MasterMode_u/n91
*670 spi_MasterMode_u/n93
*671 spi_MasterMode_u/n94
*672 spi_MasterMode_u/n96
*673 spi_MasterMode_u/n99
*674 spi_MasterMode_u/n100
*675 spi_MasterMode_u/n102
*676 spi_MasterMode_u/n103
*677 spi_MasterMode_u/n104
*678 spi_MasterMode_u/n105
*679 spi_MasterMode_u/n106
*680 spi_MasterMode_u/n108
*681 spi_MasterMode_u/n109
*682 spi_MasterMode_u/n110
*683 spi_MasterMode_u/n111
*684 spi_MasterMode_u/n114
*685 spi_MasterMode_u/n116
*686 spi_MasterMode_u/n117
*687 spi_MasterMode_u/n118
*688 spi_MasterMode_u/n119
*689 spi_MasterMode_u/n121
*690 spi_MasterMode_u/n122
*691 spi_MasterMode_u/n123
*692 spi_MasterMode_u/n125
*693 spi_MasterMode_u/n126
*694 spi_MasterMode_u/n127
*695 spi_MasterMode_u/n128
*696 spi_MasterMode_u/n129
*697 spi_MasterMode_u/n132
*698 spi_MasterMode_u/n135
*699 spi_MasterMode_u/n136
*700 spi_MasterMode_u/n137
*701 spi_MasterMode_u/n138
*702 spi_MasterMode_u/n139
*703 spi_MasterMode_u/n140
*704 spi_MasterMode_u/n142
*705 spi_MasterMode_u/n143
*706 spi_MasterMode_u/n144
*707 spi_MasterMode_u/n145
*708 spi_MasterMode_u/n146
*709 spi_MasterMode_u/n147
*710 spi_MasterMode_u/n148
*711 spi_MasterMode_u/n149
*712 spi_MasterMode_u/n150
*713 spi_MasterMode_u/n151
*714 spi_MasterMode_u/n152
*715 spi_MasterMode_u/n153
*716 spi_MasterMode_u/n154
*717 spi_MasterMode_u/n155
*718 spi_MasterMode_u/n156
*719 spi_MasterMode_u/n157
*720 spi_MasterMode_u/n158
*721 spi_MasterMode_u/n159
*722 spi_MasterMode_u/n160
*723 spi_MasterMode_u/n161
*724 spi_MasterMode_u/n162
*725 spi_MasterMode_u/n163
*726 spi_MasterMode_u/n164
*727 spi_MasterMode_u/n165
*728 spi_MasterMode_u/n166
*729 spi_MasterMode_u/n167
*730 spi_MasterMode_u/n168
*731 spi_MasterMode_u/n169
*732 spi_MasterMode_u/n170
*733 spi_MasterMode_u/n171
*734 spi_MasterMode_u/n173
*735 spi_MasterMode_u/n174
*736 spi_MasterMode_u/n175
*737 spi_MasterMode_u/n176
*738 spi_MasterMode_u/n177
*739 spi_MasterMode_u/n179
*740 spi_MasterMode_u/n180
*741 spi_MasterMode_u/n181
*742 spi_MasterMode_u/n182
*743 spi_MasterMode_u/n183
*744 spi_MasterMode_u/n184
*745 spi_MasterMode_u/n185
*746 spi_MasterMode_u/n186
*747 spi_MasterMode_u/n187
*748 spi_MasterMode_u/n188
*749 spi_MasterMode_u/n189
*750 spi_MasterMode_u/n190
*751 spi_MasterMode_u/n191
*752 spi_MasterMode_u/n192
*753 spi_MasterMode_u/n193
*754 spi_MasterMode_u/n194
*755 spi_MasterMode_u/n195
*756 spi_MasterMode_u/n196
*757 spi_MasterMode_u/n2
*758 spi_MasterMode_u/n8
*759 spi_MasterMode_u/n12
*760 spi_MasterMode_u/n13
*761 spi_MasterMode_u/n21
*762 spi_MasterMode_u/n26
*763 spi_MasterMode_u/n29
*764 spi_MasterMode_u/n32
*765 spi_MasterMode_u/n34
*766 spi_MasterMode_u/n38
*767 spi_MasterMode_u/n47
*768 spi_MasterMode_u/n54
*769 spi_MasterMode_u/n55
*770 spi_MasterMode_u/n59
*771 spi_MasterMode_u/n65
*772 spi_MasterMode_u/n80
*773 spi_MasterMode_u/n89
*774 spi_MasterMode_u/n92
*775 spi_MasterMode_u/n95
*776 spi_MasterMode_u/n97
*777 spi_MasterMode_u/n98
*778 spi_MasterMode_u/n101
*779 spi_MasterMode_u/n107
*780 spi_MasterMode_u/n112
*781 spi_MasterMode_u/n113
*782 spi_MasterMode_u/n115
*783 spi_MasterMode_u/n120
*784 spi_MasterMode_u/n124
*785 spi_MasterMode_u/n130
*786 spi_MasterMode_u/n131
*787 spi_MasterMode_u/n133
*788 spi_MasterMode_u/n134
*789 spi_MasterMode_u/n141
*790 spi_MasterMode_u/n172
*791 spi_MasterMode_u/n197
*792 spi_MasterMode_u/n198
*793 spi_MasterMode_u/n199
*794 spi_MasterMode_u/n200
*795 spi_MasterMode_u/n201
*796 spi_MasterMode_u/n202
*797 spi_MasterMode_u/spi_ext[7]
*798 spi_MasterMode_u/spi_ext[6]
*799 spi_MasterMode_u/spi_ext[5]
*800 spi_MasterMode_u/spi_ext[4]
*801 spi_MasterMode_u/spi_ext[3]
*802 spi_MasterMode_u/spi_ext[2]
*803 spi_MasterMode_u/spi_ext[1]
*804 spi_MasterMode_u/spi_ext[0]
*805 spi_MasterMode_u/trans_cnt[1]
*806 spi_MasterMode_u/trans_cnt[0]
*807 spi_MasterMode_u/spi_sta[3]
*808 spi_MasterMode_u/spi_sta[2]
*809 spi_MasterMode_u/spi_sta[1]
*810 spi_MasterMode_u/spi_sta[0]
*811 spi_MasterMode_u/rfifo_dout[7]
*812 spi_MasterMode_u/rfifo_dout[6]
*813 spi_MasterMode_u/rfifo_dout[5]
*814 spi_MasterMode_u/rfifo_dout[4]
*815 spi_MasterMode_u/rfifo_dout[3]
*816 spi_MasterMode_u/rfifo_dout[2]
*817 spi_MasterMode_u/rfifo_dout[1]
*818 spi_MasterMode_u/rfifo_dout[0]